 12
######
 C                 -0.92162817   -1.58962375    0.00167800
 C                  0.47353183   -1.58962375    0.00167800
 C                  1.17106983   -0.38187275    0.00167800
 C                  0.47341583    0.82663625    0.00047900
 C                 -0.92140917    0.82655825    0.00000000
 C                 -1.61901017   -0.38164775    0.00099600
 H                 -1.47138717   -2.54194075    0.00212800
 H                  1.02303983   -2.54213675    0.00299300
 H                  2.27074983   -0.38179275    0.00231200
 H                  1.02361583    1.77877925    0.00042000
 H                 -1.47153117    1.77883925   -0.00095300
 H                 -2.71861417   -0.38146475    0.00081600